/*--------------------------------*- C++ -*----------------------------------*\
| =========                 |                                                 |
| \\      /  F ield         | OpenFOAM: The Open Source CFD Toolbox           |
|  \\    /   O peration     | Version:  v1906                                 |
|   \\  /    A nd           | Web:      www.OpenFOAM.com                      |
|    \\/     M anipulation  |                                                 |
\*---------------------------------------------------------------------------*/
FoamFile
{
    version     2.0;
    format      ascii;
    class       IOobject;
    location    "0/nonLinearZone";
    object      boundaryFile;
}
// * * * * * * * * * * * * * * * * * * * * * * * * * * * * * * * * * * * * * //

boundaryField
{
    "interface.*"
    {
		type			mixed;
		refValue		$internalField;
		refGradient		$internalField;
		valueFraction	uniform 0;
		value			$internalField;
    }
    "(top|bottom)"
    {
        type            empty;
    }
    "(front|back)"
    {
        type            empty;
    }
}

// ************************************************************************* //
