/*--------------------------------*- C++ -*----------------------------------*\
| =========                 |                                                 |
| \\      /  F ield         | OpenFOAM: The Open Source CFD Toolbox           |
|  \\    /   O peration     | Version:  v1906                                 |
|   \\  /    A nd           | Web:      www.OpenFOAM.com                      |
|    \\/     M anipulation  |                                                 |
\*---------------------------------------------------------------------------*/
FoamFile
{
    version     2.0;
    format      ascii;
    class       dictionary;
    location    "system/background";
    object      fvSchemes;
}
// * * * * * * * * * * * * * * * * * * * * * * * * * * * * * * * * * * * * * //

temporalScheme      LDDRK46;

spatialScheme		DRP7;

filterScheme		SFo9p 5e-3;

interfaceInterpolation
{
	patches		(interface);
	order		0;
	relaxation	0;
}

divSchemes
{
}

gradSchemes
{
}

laplacianSchemes
{
}


// ************************************************************************* //
