/*--------------------------------*- C++ -*----------------------------------*\
| =========                 |                                                 |
| \\      /  F ield         | OpenFOAM: The Open Source CFD Toolbox           |
|  \\    /   O peration     | Version:  v1906                                 |
|   \\  /    A nd           | Web:      www.OpenFOAM.com                      |
|    \\/     M anipulation  |                                                 |
\*---------------------------------------------------------------------------*/
FoamFile
{
    version     2.0;
    format      ascii;
    class       polyBoundaryMesh;
    location    "constant/polyMesh";
    object      boundary;
}
// * * * * * * * * * * * * * * * * * * * * * * * * * * * * * * * * * * * * * //

8
(
    interfaceL
    {
        type            interface;
        nFaces          1;
        startFace       648;
        faces           ( ( 8 12 15 11 ) );
    }
    interfaceR
    {
        type            interface;
        nFaces          1;
        startFace       649;
        faces           ( ( 9 10 14 13 ) );
    }
    left
    {
        type            patch;
        nFaces          1;
        startFace       650;
    }
    right
    {
        type            patch;
        nFaces          1;
        startFace       651;
    }
    top
    {
        type            empty;
        inGroups        1(empty);
        nFaces          650;
        startFace       652;
    }
    bottom
    {
        type            empty;
        inGroups        1(empty);
        nFaces          650;
        startFace       1302;
    }
    front
    {
        type            empty;
        inGroups        1(empty);
        nFaces          650;
        startFace       1952;
    }
    back
    {
        type            empty;
        inGroups        1(empty);
        nFaces          650;
        startFace       2602;
    }
)

// ************************************************************************* //
