/*--------------------------------*- C++ -*----------------------------------*\
| =========                 |                                                 |
| \\      /  F ield         | OpenFOAM: The Open Source CFD Toolbox           |
|  \\    /   O peration     | Version:  v1906                                 |
|   \\  /    A nd           | Web:      www.OpenFOAM.com                      |
|    \\/     M anipulation  |                                                 |
\*---------------------------------------------------------------------------*/
FoamFile
{
    version     2.0;
    format      ascii;
    class       polyBoundaryMesh;
    location    "constant/nonLinearZone/polyMesh";
    object      boundary;
}
// * * * * * * * * * * * * * * * * * * * * * * * * * * * * * * * * * * * * * //

6
(
    interfaceL
    {
        type            interface;
        nFaces          1;
        startFace       49;
        faces           ( ( 8 12 15 11 ) );
    }
    interfaceR
    {
        type            interface;
        nFaces          1;
        startFace       50;
        faces           ( ( 9 10 14 13 ) );
    }
    top
    {
        type            empty;
        inGroups        1(empty);
        nFaces          50;
        startFace       51;
    }
    bottom
    {
        type            empty;
        inGroups        1(empty);
        nFaces          50;
        startFace       101;
    }
    front
    {
        type            empty;
        inGroups        1(empty);
        nFaces          50;
        startFace       151;
    }
    back
    {
        type            empty;
        inGroups        1(empty);
        nFaces          50;
        startFace       201;
    }
)

// ************************************************************************* //
