/*--------------------------------*- C++ -*----------------------------------*\
| =========                 |                                                 |
| \\      /  F ield         | OpenFOAM: The Open Source CFD Toolbox           |
|  \\    /   O peration     | Version:  v1906                                 |
|   \\  /    A nd           | Web:      www.OpenFOAM.com                      |
|    \\/     M anipulation  |                                                 |
\*---------------------------------------------------------------------------*/
FoamFile
{
    version     2.0;
    format      ascii;
    class       polyBoundaryMesh;
    location    "constant/linearZone/polyMesh";
    object      boundary;
}
// * * * * * * * * * * * * * * * * * * * * * * * * * * * * * * * * * * * * * //

6
(
    left
    {
        type            patch;
        nFaces          1;
        startFace       299;
    }
    right
    {
        type            patch;
        nFaces          1;
        startFace       300;
    }
    top
    {
        type            empty;
        inGroups        1(empty);
        nFaces          300;
        startFace       301;
    }
    bottom
    {
        type            empty;
        inGroups        1(empty);
        nFaces          300;
        startFace       601;
    }
    front
    {
        type            empty;
        inGroups        1(empty);
        nFaces          300;
        startFace       901;
    }
    back
    {
        type            empty;
        inGroups        1(empty);
        nFaces          300;
        startFace       1201;
    }
)

// ************************************************************************* //
