/*--------------------------------*- C++ -*----------------------------------*\
| =========                 |                                                 |
| \\      /  F ield         | OpenFOAM: The Open Source CFD Toolbox           |
|  \\    /   O peration     | Version:  v1906                                 |
|   \\  /    A nd           | Web:      www.OpenFOAM.com                      |
|    \\/     M anipulation  |                                                 |
\*---------------------------------------------------------------------------*/
FoamFile
{
    version     2.0;
    format      ascii;
    class       volScalarField;
    location    "constant/linearZone";
    object      sigma;
}
// * * * * * * * * * * * * * * * * * * * * * * * * * * * * * * * * * * * * * //

dimensions      [0 0 0 0 0 0 0];


internalField   nonuniform List<scalar> 
500
(
0.25
0.23990004
0.23000833
0.22032486
0.21084965
0.20158267
0.19252395
0.18367347
0.17503124
0.16659725
0.15837151
0.15035402
0.14254477
0.13494377
0.12755102
0.12036651
0.11339025
0.10662224
0.10006247
0.093710954
0.08756768
0.081632653
0.075905873
0.070387339
0.065077051
0.05997501
0.055081216
0.050395668
0.045918367
0.041649313
0.037588505
0.033735943
0.030091628
0.02665556
0.023427738
0.020408163
0.017596835
0.014993753
0.012598917
0.010412328
0.0084339858
0.00666389
0.0051020408
0.0037484382
0.002603082
0.0016659725
0.00093710954
0.00041649313
0.00010412328
0
0
0
0
0
0
0
0
0
0
0
0
0
0
0
0
0
0
0
0
0
0
0
0
0
0
0
0
0
0
0
0
0
0
0
0
0
0
0
0
0
0
0
0
0
0
0
0
0
0
0
0
0
0
0
0
0
0
0
0
0
0
0
0
0
0
0
0
0
0
0
0
0
0
0
0
0
0
0
0
0
0
0
0
0
0
0
0
0
0
0
0
0
0
0
0
0
0
0
0
0
0
0
0
0
0
0
0
0
0
0
0
0
0
0
0
0
0
0
0
0
0
0
0
0
0
0
0
0
0
0
0
0
0
0
0
0
0
0
0
0
0
0
0
0
0
0
0
0
0
0
0
0
0
0
0
0
0
0
0
0
0
0
0
0
0
0
0
0
0
0
0
0
0
0
0
0
0
0
0
0
0
0
0
0
0
0
0
0
0
0
0
0
0
0
0
0
0
0
0
0
0
0
0
0
0
0
0
0
0
0
0
0
0
0
0
0
0
0
0
0
0
0
0
0
0
0
0
0
0
0
0
0
0
0
0
0
0
0
0
0
0
0
0
0
0
0
0
0
0
0
0
0
0
0
0
0
0
0
0
0
0
0
0
0
0
0
0
0
0
0
0
0
0
0
0
0
0
0
0
0
0
0
0
0
0
0
0
0
0
0
0
0
0
0
0
0
0
0
0
0
0
0
0
0
0
0
0
0
0
0
0
0
0
0
0
0
0
0
0
0
0
0
0
0
0
0
0
0
0
0
0
0
0
0
0
0
0
0
0
0
0
0
0
0
0
0
0
0
0
0
0
0
0
0
0
0
0
0
0
0
0
0
0
0
0
0
0
0
0
0
0
0
0
0
0
0
0
0
0
0
0
0
0
0
0
0
0
0
0
0
0
0
0
0
0
0
0
0
0
0
0
0.00010412328
0.00041649313
0.00093710954
0.0016659725
0.002603082
0.0037484382
0.0051020408
0.00666389
0.0084339858
0.010412328
0.012598917
0.014993753
0.017596835
0.020408163
0.023427738
0.02665556
0.030091628
0.033735943
0.037588505
0.041649313
0.045918367
0.050395668
0.055081216
0.05997501
0.065077051
0.070387339
0.075905873
0.081632653
0.08756768
0.093710954
0.10006247
0.10662224
0.11339025
0.12036651
0.12755102
0.13494377
0.14254477
0.15035402
0.15837151
0.16659725
0.17503124
0.18367347
0.19252395
0.20158267
0.21084965
0.22032486
0.23000833
0.23990004
0.25
)
;

boundaryField
{
    left
    {
        type            zeroGradient;
    }
    right
    {
        type            zeroGradient;
    }
    top
    {
        type            empty;
    }
    bottom
    {
        type            empty;
    }
    front
    {
        type            empty;
    }
    back
    {
        type            empty;
    }
}


// ************************************************************************* //
