/*--------------------------------*- C++ -*----------------------------------*\
| =========                 |                                                 |
| \\      /  F ield         | OpenFOAM: The Open Source CFD Toolbox           |
|  \\    /   O peration     | Version:  v1906                                 |
|   \\  /    A nd           | Web:      www.OpenFOAM.com                      |
|    \\/     M anipulation  |                                                 |
\*---------------------------------------------------------------------------*/
FoamFile
{
    version     2.0;
    format      ascii;
    class       surfaceScalarField;
    location    "constant/linearZone";
    object      omegaf;
}
// * * * * * * * * * * * * * * * * * * * * * * * * * * * * * * * * * * * * * //

dimensions      [0 3 0 0 0 0 0];
oriented        oriented;


internalField   nonuniform List<scalar> 
299
(
0.023990004
0.023000833
0.022032486
0.021084965
0.020158267
0.019252395
0.018367347
0.017503124
0.016659725
0.015837151
0.015035402
0.014254477
0.013494377
0.012755102
0.012036651
0.011339025
0.010662224
0.010006247
0.0093710954
0.008756768
0.0081632653
0.0075905873
0.0070387339
0.0065077051
0.005997501
0.0055081216
0.0050395668
0.0045918367
0.0041649313
0.0037588505
0.0033735943
0.0030091628
0.002665556
0.0023427738
0.0020408163
0.0017596835
0.0014993753
0.0012598917
0.0010412328
0.00084339858
0.000666389
0.00051020408
0.00037484382
0.0002603082
0.00016659725
9.3710954e-05
4.1649313e-05
1.0412328e-05
0
0
0
0
0
0
0
0
0
0
0
0
0
0
0
0
0
0
0
0
0
0
0
0
0
0
0
0
0
0
0
0
0
0
0
0
0
0
0
0
0
0
0
0
0
0
0
0
0
0
0
0
0
0
0
0
0
0
0
0
0
0
0
0
0
0
0
0
0
0
0
0
0
0
0
0
0
0
0
0
0
0
0
0
0
0
0
0
0
0
0
0
0
0
0
0
0
0
0
0
0
0
0
0
0
0
0
0
0
0
0
0
0
0
0
0
0
0
0
0
0
0
0
0
0
0
0
0
0
0
0
0
0
0
0
0
0
0
0
0
0
0
0
0
0
0
0
0
0
0
0
0
0
0
0
0
0
0
0
0
0
0
0
0
0
0
0
0
0
0
0
0
0
0
0
0
0
0
0
0
0
0
0
0
0
0
0
0
0
0
0
0
0
0
0
0
0
0
0
0
0
0
0
1.0412328e-05
4.1649313e-05
9.3710954e-05
0.00016659725
0.0002603082
0.00037484382
0.00051020408
0.000666389
0.00084339858
0.0010412328
0.0012598917
0.0014993753
0.0017596835
0.0020408163
0.0023427738
0.002665556
0.0030091628
0.0033735943
0.0037588505
0.0041649313
0.0045918367
0.0050395668
0.0055081216
0.005997501
0.0065077051
0.0070387339
0.0075905873
0.0081632653
0.008756768
0.0093710954
0.010006247
0.010662224
0.011339025
0.012036651
0.012755102
0.013494377
0.014254477
0.015035402
0.015837151
0.016659725
0.017503124
0.018367347
0.019252395
0.020158267
0.021084965
0.022032486
0.023000833
0.023990004
)
;

boundaryField
{
    left
    {
        type            calculated;
        value           uniform 0;
    }
    right
    {
        type            calculated;
        value           uniform 0;
    }
    top
    {
        type            empty;
        value           nonuniform 0();
    }
    bottom
    {
        type            empty;
        value           nonuniform 0();
    }
    front
    {
        type            empty;
        value           nonuniform 0();
    }
    back
    {
        type            empty;
        value           nonuniform 0();
    }
}


// ************************************************************************* //
