/*--------------------------------*- C++ -*----------------------------------*\
| =========                 |                                                 |
| \\      /  F ield         | OpenFOAM: The Open Source CFD Toolbox           |
|  \\    /   O peration     | Version:  v1906                                 |
|   \\  /    A nd           | Web:      www.OpenFOAM.com                      |
|    \\/     M anipulation  |                                                 |
\*---------------------------------------------------------------------------*/
FoamFile
{
    version     2.0;
    format      ascii;
    class       volScalarField;
    location    "constant/linearZone";
    object      sigma;
}
// * * * * * * * * * * * * * * * * * * * * * * * * * * * * * * * * * * * * * //

dimensions      [0 0 0 0 0 0 0];


internalField   nonuniform List<scalar> 
400
(
0.025
0.0239900041649
0.0230008329863
0.022032486464
0.0210849645981
0.0201582673886
0.0192523948355
0.0183673469388
0.0175031236985
0.0166597251145
0.015837151187
0.0150354019159
0.0142544773011
0.0134943773428
0.0127551020408
0.0120366513953
0.0113390254061
0.0106622240733
0.0100062473969
0.00937109537693
0.00875676801333
0.00816326530612
0.00759058725531
0.00703873386089
0.00650770512287
0.00599750104123
0.00550812161599
0.00503956684715
0.00459183673469
0.00416493127863
0.00375885047897
0.00337359433569
0.00300916284881
0.00266555601833
0.00234277384423
0.00204081632653
0.00175968346522
0.00149937526031
0.00125989171179
0.00104123281966
0.000843398583923
0.000666389004581
0.000510204081633
0.000374843815077
0.000260308204915
0.000166597251145
9.37109537693e-05
4.16493127863e-05
1.04123281966e-05
0
0
0
0
0
0
0
0
0
0
0
0
0
0
0
0
0
0
0
0
0
0
0
0
0
0
0
0
0
0
0
0
0
0
0
0
0
0
0
0
0
0
0
0
0
0
0
0
0
0
0
0
0
0
0
0
0
0
0
0
0
0
0
0
0
0
0
0
0
0
0
0
0
0
0
0
0
0
0
0
0
0
0
0
0
0
0
0
0
0
0
0
0
0
0
0
0
0
0
0
0
0
0
0
0
0
0
0
0
0
0
0
0
0
0
0
0
0
0
0
0
0
0
0
0
0
0
0
0
0
0
0
0
0
0
0
0
0
0
0
0
0
0
0
0
0
0
0
0
0
0
0
0
0
0
0
0
0
0
0
0
0
0
0
0
0
0
0
0
0
0
0
0
0
0
0
0
0
0
0
0
0
0
0
0
0
0
0
0
0
0
0
0
0
0
0
0
0
0
0
0
0
0
0
0
0
0
0
0
0
0
0
0
0
0
0
0
0
0
0
0
0
0
0
0
0
0
0
0
0
0
0
0
0
0
0
0
0
0
0
0
0
0
0
0
0
0
0
0
0
0
0
0
0
0
0
0
0
0
0
0
0
0
0
0
0
0
0
0
0
0
0
0
0
0
0
0
0
0
0
0
0
0
0
0
0
0
0
0
0
0
0
0
0
0
0
0
0
0
0
0
0
1.04123281966e-05
4.16493127863e-05
9.37109537693e-05
0.000166597251145
0.000260308204915
0.000374843815077
0.000510204081633
0.000666389004581
0.000843398583923
0.00104123281966
0.00125989171179
0.00149937526031
0.00175968346522
0.00204081632653
0.00234277384423
0.00266555601833
0.00300916284881
0.00337359433569
0.00375885047897
0.00416493127863
0.00459183673469
0.00503956684715
0.00550812161599
0.00599750104123
0.00650770512287
0.00703873386089
0.00759058725531
0.00816326530612
0.00875676801333
0.00937109537693
0.0100062473969
0.0106622240733
0.0113390254061
0.0120366513953
0.0127551020408
0.0134943773428
0.0142544773011
0.0150354019159
0.015837151187
0.0166597251145
0.0175031236985
0.0183673469388
0.0192523948355
0.0201582673886
0.0210849645981
0.022032486464
0.0230008329863
0.0239900041649
0.025
)
;

boundaryField
{
    left
    {
        type            zeroGradient;
    }
    right
    {
        type            zeroGradient;
    }
    top
    {
        type            empty;
    }
    bottom
    {
        type            empty;
    }
    front
    {
        type            empty;
    }
    back
    {
        type            empty;
    }
}


// ************************************************************************* //
