/*--------------------------------*- C++ -*----------------------------------*\
| =========                 |                                                 |
| \\      /  F ield         | OpenFOAM: The Open Source CFD Toolbox           |
|  \\    /   O peration     | Version:  2.4.0                                 |
|   \\  /    A nd           | Web:      www.OpenFOAM.org                      |
|    \\/     M anipulation  |                                                 |
\*---------------------------------------------------------------------------*/
FoamFile
{
    version     2.0;
    format      ascii;
    class       volScalarField;
    location    "0/nonLinearZone";
    object      T;
}
// * * * * * * * * * * * * * * * * * * * * * * * * * * * * * * * * * * * * * //

dimensions      [0 0 0 1 0 0 0];

dummyValue		uniform 0;

internalField   #codeStream
{
	codeInclude
    #{
        #include "fvCFD.H"
    #};
    
    codeOptions
    #{
        -I$(LIB_SRC)/finiteVolume/lnInclude \
        -I$(LIB_SRC)/meshTools/lnInclude \
        -I$(FOAM_CASE)/0/
    #};

    code
    #{
        const IOdictionary& d = static_cast<const IOdictionary&>(dict);

        const fvMesh& mesh = refCast<const fvMesh>(d.db());

		#include "waveProperties.H"
		
		// Gas properties
		const scalar R(1.0/1.4), gamma(1.4);

		// Mean properties
		const scalar pMean(1.0), TMean(1.0);

		const scalar rhoMean(pMean/(R*TMean));
		
		const scalar cSqrMean(gamma*R*TMean);
		
		// Density perturbation
		const scalar rhoPrime(ep/cSqrMean);

		scalarField T(mesh.nCells(), TMean);

        forAll(T, i)
        {
			const vector& xc = mesh.C().internalField()[i];

			const scalar rp = (xc - xp) & kp;
			
			const scalar rpSqr = min(sqr(rp), sqr(rp - 200.0));
			
			const scalar p = pMean + ep*Foam::exp(-ap*rpSqr);
			
			const scalar rho = rhoMean + rhoPrime*Foam::exp(-ap*rpSqr);
			
			T[i] = p/(R*rho);
        }

		T.writeEntry("", os);
	#};
};

#include "../boundaryFile"

// ************************************************************************* //
