/*--------------------------------*- C++ -*----------------------------------*\
| =========                 |                                                 |
| \\      /  F ield         | OpenFOAM: The Open Source CFD Toolbox           |
|  \\    /   O peration     | Version:  v1906                                 |
|   \\  /    A nd           | Web:      www.OpenFOAM.com                      |
|    \\/     M anipulation  |                                                 |
\*---------------------------------------------------------------------------*/
FoamFile
{
    version     2.0;
    format      ascii;
    class       surfaceScalarField;
    location    "constant/linearZone";
    object      omegaf;
}
// * * * * * * * * * * * * * * * * * * * * * * * * * * * * * * * * * * * * * //

dimensions      [0 3 0 0 0 0 0];
oriented        oriented;


internalField   nonuniform List<scalar> 
204160
(
7.681206909e-06
7.681206909e-06
7.552158144e-06
7.549913818e-06
7.425353706e-06
7.420865053e-06
7.300793594e-06
7.294060615e-06
7.178477808e-06
7.169500503e-06
7.058406349e-06
7.047184717e-06
6.940579216e-06
6.927113258e-06
6.824996409e-06
6.809286125e-06
6.711657929e-06
6.693703318e-06
6.600563775e-06
6.580364838e-06
6.491713947e-06
6.469270684e-06
6.385108446e-06
6.360420856e-06
6.280747271e-06
6.253815355e-06
6.178630422e-06
6.14945418e-06
6.0787579e-06
6.047337331e-06
5.981129704e-06
5.947464809e-06
5.885745835e-06
5.849836613e-06
5.792606291e-06
5.754452743e-06
5.701711074e-06
5.6613132e-06
5.613060184e-06
5.570417983e-06
5.52665362e-06
5.481767093e-06
5.442491382e-06
5.395360529e-06
5.36057347e-06
5.311198291e-06
5.280899885e-06
5.229280379e-06
5.203470626e-06
5.149606794e-06
5.128285694e-06
5.072177535e-06
5.055345088e-06
4.996992603e-06
4.984648808e-06
4.924051997e-06
4.916196854e-06
4.853355717e-06
4.849989227e-06
4.784903763e-06
4.786025926e-06
4.718696136e-06
4.724306952e-06
4.654732835e-06
4.664832304e-06
4.593013861e-06
4.607601982e-06
4.533539213e-06
4.552615987e-06
4.476308891e-06
4.499874318e-06
4.421322896e-06
4.449376975e-06
4.368581227e-06
4.401123959e-06
4.318083884e-06
4.355115269e-06
4.269830868e-06
4.311350905e-06
4.223822178e-06
4.269830868e-06
4.180057814e-06
4.230555157e-06
4.138537777e-06
4.193523772e-06
4.099262065e-06
4.158736714e-06
4.062230681e-06
4.126193982e-06
4.027443623e-06
4.095895576e-06
3.994900891e-06
4.067841497e-06
3.964602485e-06
4.042031744e-06
3.936548406e-06
4.018466317e-06
3.910738653e-06
3.997145217e-06
3.887173226e-06
3.978068443e-06
3.865852126e-06
3.961235995e-06
3.846775352e-06
3.946647874e-06
3.829942904e-06
3.934304079e-06
3.815354783e-06
3.924204611e-06
3.803010988e-06
3.916349469e-06
3.79291152e-06
3.910738653e-06
3.785056377e-06
3.907372163e-06
3.779445562e-06
3.90625e-06
3.776079072e-06
3.90625e-06
3.774956909e-06
3.90625e-06
3.774956909e-06
3.90625e-06
3.774956909e-06
3.90625e-06
3.774956909e-06
3.90625e-06
3.774956909e-06
3.90625e-06
3.774956909e-06
3.90625e-06
3.774956909e-06
3.90625e-06
3.774956909e-06
3.90625e-06
3.774956909e-06
3.90625e-06
3.774956909e-06
3.90625e-06
3.774956909e-06
3.90625e-06
3.774956909e-06
3.90625e-06
3.774956909e-06
3.90625e-06
3.774956909e-06
3.90625e-06
3.774956909e-06
3.90625e-06
3.774956909e-06
3.90625e-06
3.774956909e-06
3.90625e-06
3.774956909e-06
3.90625e-06
3.774956909e-06
3.90625e-06
3.774956909e-06
3.90625e-06
3.774956909e-06
3.90625e-06
3.774956909e-06
3.90625e-06
3.774956909e-06
3.90625e-06
3.774956909e-06
3.90625e-06
3.774956909e-06
3.90625e-06
3.774956909e-06
3.90625e-06
3.774956909e-06
3.90625e-06
3.774956909e-06
3.90625e-06
3.774956909e-06
3.90625e-06
3.774956909e-06
3.90625e-06
3.774956909e-06
3.90625e-06
3.774956909e-06
3.90625e-06
3.774956909e-06
3.90625e-06
3.774956909e-06
3.90625e-06
3.774956909e-06
3.90625e-06
3.774956909e-06
3.90625e-06
3.774956909e-06
3.90625e-06
3.774956909e-06
3.90625e-06
3.774956909e-06
3.90625e-06
3.774956909e-06
3.90625e-06
3.774956909e-06
3.90625e-06
3.774956909e-06
3.90625e-06
3.774956909e-06
3.90625e-06
3.774956909e-06
3.90625e-06
3.774956909e-06
3.90625e-06
3.774956909e-06
3.90625e-06
3.774956909e-06
3.90625e-06
3.774956909e-06
3.90625e-06
3.774956909e-06
3.90625e-06
3.774956909e-06
3.90625e-06
3.774956909e-06
3.90625e-06
3.774956909e-06
3.90625e-06
3.774956909e-06
3.90625e-06
3.774956909e-06
3.90625e-06
3.774956909e-06
3.90625e-06
3.774956909e-06
3.90625e-06
3.774956909e-06
3.90625e-06
3.774956909e-06
3.90625e-06
3.774956909e-06
3.90625e-06
3.774956909e-06
3.90625e-06
3.774956909e-06
3.90625e-06
3.774956909e-06
3.90625e-06
3.774956909e-06
3.90625e-06
3.774956909e-06
3.90625e-06
3.774956909e-06
3.90625e-06
3.774956909e-06
3.90625e-06
3.774956909e-06
3.90625e-06
3.774956909e-06
3.90625e-06
3.774956909e-06
3.90625e-06
3.774956909e-06
3.90625e-06
3.774956909e-06
3.90625e-06
3.774956909e-06
3.90625e-06
3.774956909e-06
3.90625e-06
3.774956909e-06
3.90625e-06
3.774956909e-06
3.90625e-06
3.774956909e-06
3.90625e-06
3.774956909e-06
3.90625e-06
3.774956909e-06
3.90625e-06
3.774956909e-06
3.90625e-06
3.774956909e-06
3.90625e-06
3.774956909e-06
3.90625e-06
3.774956909e-06
3.90625e-06
3.774956909e-06
3.90625e-06
3.774956909e-06
3.90625e-06
3.774956909e-06
3.90625e-06
3.774956909e-06
3.90625e-06
3.774956909e-06
3.90625e-06
3.774956909e-06
3.90625e-06
3.774956909e-06
3.90625e-06
3.774956909e-06
3.90625e-06
3.774956909e-06
3.90625e-06
3.774956909e-06
3.90625e-06
3.774956909e-06
3.90625e-06
3.774956909e-06
3.90625e-06
3.774956909e-06
3.90625e-06
3.774956909e-06
3.90625e-06
3.774956909e-06
3.90625e-06
3.774956909e-06
3.90625e-06
3.774956909e-06
3.90625e-06
3.774956909e-06
3.90625e-06
3.774956909e-06
3.90625e-06
3.774956909e-06
3.90625e-06
3.774956909e-06
3.90625e-06
3.774956909e-06
3.90625e-06
3.774956909e-06
3.90625e-06
3.774956909e-06
3.90625e-06
3.774956909e-06
3.90625e-06
3.774956909e-06
3.90625e-06
3.774956909e-06
3.90625e-06
3.774956909e-06
3.90625e-06
3.774956909e-06
3.90625e-06
3.774956909e-06
3.90625e-06
3.774956909e-06
3.90625e-06
3.774956909e-06
3.90625e-06
3.774956909e-06
3.90625e-06
3.774956909e-06
3.90625e-06
3.774956909e-06
3.90625e-06
3.774956909e-06
3.90625e-06
3.774956909e-06
3.90625e-06
3.774956909e-06
3.90625e-06
3.774956909e-06
3.90625e-06
3.774956909e-06
3.90625e-06
3.774956909e-06
3.90625e-06
3.774956909e-06
3.90625e-06
3.774956909e-06
3.90625e-06
3.774956909e-06
3.90625e-06
3.774956909e-06
3.90625e-06
3.774956909e-06
3.90625e-06
3.774956909e-06
3.90625e-06
3.774956909e-06
3.90625e-06
3.774956909e-06
3.90625e-06
3.774956909e-06
3.90625e-06
3.774956909e-06
3.90625e-06
3.774956909e-06
3.90625e-06
3.774956909e-06
3.90625e-06
3.774956909e-06
3.90625e-06
3.774956909e-06
3.90625e-06
3.774956909e-06
3.90625e-06
3.774956909e-06
3.90625e-06
3.774956909e-06
3.90625e-06
3.774956909e-06
3.90625e-06
3.774956909e-06
3.90625e-06
3.774956909e-06
3.90625e-06
3.774956909e-06
3.90625e-06
3.774956909e-06
3.90625e-06
3.774956909e-06
3.90625e-06
3.774956909e-06
3.90625e-06
3.774956909e-06
3.90625e-06
3.774956909e-06
3.90625e-06
3.774956909e-06
3.90625e-06
3.774956909e-06
3.90625e-06
3.774956909e-06
3.90625e-06
3.774956909e-06
3.90625e-06
3.774956909e-06
3.90625e-06
3.774956909e-06
3.90625e-06
3.774956909e-06
3.90625e-06
3.774956909e-06
3.90625e-06
3.774956909e-06
3.90625e-06
3.774956909e-06
3.90625e-06
3.774956909e-06
3.90625e-06
3.774956909e-06
3.90625e-06
3.774956909e-06
3.90625e-06
3.774956909e-06
3.90625e-06
3.774956909e-06
3.90625e-06
3.774956909e-06
3.90625e-06
3.774956909e-06
3.90625e-06
3.774956909e-06
3.90625e-06
3.774956909e-06
3.90625e-06
3.774956909e-06
3.90625e-06
3.774956909e-06
3.90625e-06
3.774956909e-06
3.90625e-06
3.774956909e-06
3.90625e-06
3.774956909e-06
3.90625e-06
3.774956909e-06
3.90625e-06
3.774956909e-06
3.90625e-06
3.774956909e-06
3.90625e-06
3.774956909e-06
3.90625e-06
3.774956909e-06
3.90625e-06
3.774956909e-06
3.90625e-06
3.774956909e-06
3.90625e-06
3.774956909e-06
3.90625e-06
3.774956909e-06
3.90625e-06
3.774956909e-06
3.90625e-06
3.774956909e-06
3.90625e-06
3.774956909e-06
3.90625e-06
3.774956909e-06
3.90625e-06
3.774956909e-06
3.90625e-06
3.774956909e-06
3.90625e-06
3.774956909e-06
3.90625e-06
3.774956909e-06
3.90625e-06
3.774956909e-06
3.90625e-06
3.774956909e-06
3.90625e-06
3.774956909e-06
3.90625e-06
3.774956909e-06
3.90625e-06
3.774956909e-06
3.90625e-06
3.774956909e-06
3.90625e-06
3.774956909e-06
3.90625e-06
3.774956909e-06
3.90625e-06
3.774956909e-06
3.90625e-06
3.774956909e-06
3.90625e-06
3.774956909e-06
3.90625e-06
3.774956909e-06
3.907372163e-06
3.776079072e-06
3.910738653e-06
3.779445562e-06
3.916349469e-06
3.785056377e-06
3.924204611e-06
3.79291152e-06
3.934304079e-06
3.803010988e-06
3.946647874e-06
3.815354783e-06
3.961235995e-06
3.829942904e-06
3.978068443e-06
3.846775352e-06
3.997145217e-06
3.865852126e-06
4.018466317e-06
3.887173226e-06
4.042031744e-06
3.910738653e-06
4.067841497e-06
3.936548406e-06
4.095895576e-06
3.964602485e-06
4.126193982e-06
3.994900891e-06
4.158736714e-06
4.027443623e-06
4.193523772e-06
4.062230681e-06
4.230555157e-06
4.099262065e-06
4.269830868e-06
4.138537777e-06
4.311350905e-06
4.180057814e-06
4.355115269e-06
4.223822178e-06
4.401123959e-06
4.269830868e-06
4.449376975e-06
4.318083884e-06
4.499874318e-06
4.368581227e-06
4.552615987e-06
4.421322896e-06
4.607601982e-06
4.476308891e-06
4.664832304e-06
4.533539213e-06
4.724306952e-06
4.593013861e-06
4.786025926e-06
4.654732835e-06
4.849989227e-06
4.718696136e-06
4.916196854e-06
4.784903763e-06
4.984648808e-06
4.853355717e-06
5.055345088e-06
4.924051997e-06
5.128285694e-06
4.996992603e-06
5.203470626e-06
5.072177535e-06
5.280899885e-06
5.149606794e-06
5.36057347e-06
5.229280379e-06
5.442491382e-06
5.311198291e-06
5.52665362e-06
5.395360529e-06
5.613060184e-06
5.481767093e-06
5.701711074e-06
5.570417983e-06
5.792606291e-06
5.6613132e-06
5.885745835e-06
5.754452743e-06
5.981129704e-06
5.849836613e-06
6.0787579e-06
5.947464809e-06
6.178630422e-06
6.047337331e-06
6.280747271e-06
6.14945418e-06
6.385108446e-06
6.253815355e-06
6.491713947e-06
6.360420856e-06
6.600563775e-06
6.469270684e-06
6.711657929e-06
6.580364838e-06
6.824996409e-06
6.693703318e-06
6.940579216e-06
6.809286125e-06
7.058406349e-06
6.927113258e-06
7.178477808e-06
7.047184717e-06
7.300793594e-06
7.169500503e-06
7.425353706e-06
7.294060615e-06
7.552158144e-06
7.420865053e-06
7.681206909e-06
7.549913818e-06
7.681206909e-06
7.549913818e-06
7.552158144e-06
7.420865053e-06
7.420865053e-06
7.294060615e-06
7.291816288e-06
7.169500503e-06
7.16501185e-06
7.047184717e-06
7.040451738e-06
6.927113258e-06
6.918135952e-06
6.809286125e-06
6.798064493e-06
6.693703318e-06
6.68023736e-06
6.580364838e-06
6.564654553e-06
6.469270684e-06
6.451316073e-06
6.360420856e-06
6.340221919e-06
6.253815355e-06
6.231372091e-06
6.14945418e-06
6.12476659e-06
6.047337331e-06
6.020405415e-06
5.947464809e-06
5.918288567e-06
5.849836613e-06
5.818416044e-06
5.754452743e-06
5.720787848e-06
5.6613132e-06
5.625403979e-06
5.570417983e-06
5.532264436e-06
5.481767093e-06
5.441369219e-06
5.395360529e-06
5.352718328e-06
5.311198291e-06
5.266311764e-06
5.229280379e-06
5.182149526e-06
5.149606794e-06
5.100231614e-06
5.072177535e-06
5.020558029e-06
4.996992603e-06
4.94312877e-06
4.924051997e-06
4.867943838e-06
4.853355717e-06
4.795003232e-06
4.784903763e-06
4.724306952e-06
4.718696136e-06
4.655854999e-06
4.654732835e-06
4.589647371e-06
4.593013861e-06
4.525684071e-06
4.533539213e-06
4.463965096e-06
4.476308891e-06
4.404490448e-06
4.421322896e-06
4.347260126e-06
4.368581227e-06
4.292274131e-06
4.318083884e-06
4.239532462e-06
4.269830868e-06
4.189035119e-06
4.223822178e-06
4.140782103e-06
4.180057814e-06
4.094773413e-06
4.138537777e-06
4.051009049e-06
4.099262065e-06
4.009489012e-06
4.062230681e-06
3.970213301e-06
4.027443623e-06
3.933181916e-06
3.994900891e-06
3.898394858e-06
3.964602485e-06
3.865852126e-06
3.936548406e-06
3.83555372e-06
3.910738653e-06
3.807499641e-06
3.887173226e-06
3.781689888e-06
3.865852126e-06
3.758124461e-06
3.846775352e-06
3.736803361e-06
3.829942904e-06
3.717726587e-06
3.815354783e-06
3.70089414e-06
3.803010988e-06
3.686306018e-06
3.79291152e-06
3.673962223e-06
3.785056377e-06
3.663862755e-06
3.779445562e-06
3.656007613e-06
3.776079072e-06
3.650396797e-06
3.774956909e-06
3.647030307e-06
3.774956909e-06
3.645908144e-06
3.774956909e-06
3.645908144e-06
3.774956909e-06
3.645908144e-06
3.774956909e-06
3.645908144e-06
3.774956909e-06
3.645908144e-06
3.774956909e-06
3.645908144e-06
3.774956909e-06
3.645908144e-06
3.774956909e-06
3.645908144e-06
3.774956909e-06
3.645908144e-06
3.774956909e-06
3.645908144e-06
3.774956909e-06
3.645908144e-06
3.774956909e-06
3.645908144e-06
3.774956909e-06
3.645908144e-06
3.774956909e-06
3.645908144e-06
3.774956909e-06
3.645908144e-06
3.774956909e-06
3.645908144e-06
3.774956909e-06
3.645908144e-06
3.774956909e-06
3.645908144e-06
3.774956909e-06
3.645908144e-06
3.774956909e-06
3.645908144e-06
3.774956909e-06
3.645908144e-06
3.774956909e-06
3.645908144e-06
3.774956909e-06
3.645908144e-06
3.774956909e-06
3.645908144e-06
3.774956909e-06
3.645908144e-06
3.774956909e-06
3.645908144e-06
3.774956909e-06
3.645908144e-06
3.774956909e-06
3.645908144e-06
3.774956909e-06
3.645908144e-06
3.774956909e-06
3.645908144e-06
3.774956909e-06
3.645908144e-06
3.774956909e-06
3.645908144e-06
3.774956909e-06
3.645908144e-06
3.774956909e-06
3.645908144e-06
3.774956909e-06
3.645908144e-06
3.774956909e-06
3.645908144e-06
3.774956909e-06
3.645908144e-06
3.774956909e-06
3.645908144e-06
3.774956909e-06
3.645908144e-06
3.774956909e-06
3.645908144e-06
3.774956909e-06
3.645908144e-06
3.774956909e-06
3.645908144e-06
3.774956909e-06
3.645908144e-06
3.774956909e-06
3.645908144e-06
3.774956909e-06
3.645908144e-06
3.774956909e-06
3.645908144e-06
3.774956909e-06
3.645908144e-06
3.774956909e-06
3.645908144e-06
3.774956909e-06
3.645908144e-06
3.774956909e-06
3.645908144e-06
3.774956909e-06
3.645908144e-06
3.774956909e-06
3.645908144e-06
3.774956909e-06
3.645908144e-06
3.774956909e-06
3.645908144e-06
3.774956909e-06
3.645908144e-06
3.774956909e-06
3.645908144e-06
3.774956909e-06
3.645908144e-06
3.774956909e-06
3.645908144e-06
3.774956909e-06
3.645908144e-06
3.774956909e-06
3.645908144e-06
3.774956909e-06
3.645908144e-06
3.774956909e-06
3.645908144e-06
3.774956909e-06
3.645908144e-06
3.774956909e-06
3.645908144e-06
3.774956909e-06
3.645908144e-06
3.774956909e-06
3.645908144e-06
3.774956909e-06
3.645908144e-06
3.774956909e-06
3.645908144e-06
3.774956909e-06
3.645908144e-06
3.774956909e-06
3.645908144e-06
3.774956909e-06
3.645908144e-06
3.774956909e-06
3.645908144e-06
3.774956909e-06
3.645908144e-06
3.774956909e-06
3.645908144e-06
3.774956909e-06
3.645908144e-06
3.774956909e-06
3.645908144e-06
3.774956909e-06
3.645908144e-06
3.774956909e-06
3.645908144e-06
3.774956909e-06
3.645908144e-06
3.774956909e-06
3.645908144e-06
3.774956909e-06
3.645908144e-06
3.774956909e-06
3.645908144e-06
3.774956909e-06
3.645908144e-06
3.774956909e-06
3.645908144e-06
3.774956909e-06
3.645908144e-06
3.774956909e-06
3.645908144e-06
3.774956909e-06
3.645908144e-06
3.774956909e-06
3.645908144e-06
3.774956909e-06
3.645908144e-06
3.774956909e-06
3.645908144e-06
3.774956909e-06
3.645908144e-06
3.774956909e-06
3.645908144e-06
3.774956909e-06
3.645908144e-06
3.774956909e-06
3.645908144e-06
3.774956909e-06
3.645908144e-06
3.774956909e-06
3.645908144e-06
3.774956909e-06
3.645908144e-06
3.774956909e-06
3.645908144e-06
3.774956909e-06
3.645908144e-06
3.774956909e-06
3.645908144e-06
3.774956909e-06
3.645908144e-06
3.774956909e-06
3.645908144e-06
3.774956909e-06
3.645908144e-06
3.774956909e-06
3.645908144e-06
3.774956909e-06
3.645908144e-06
3.774956909e-06
3.645908144e-06
3.774956909e-06
3.645908144e-06
3.774956909e-06
3.645908144e-06
3.774956909e-06
3.645908144e-06
3.774956909e-06
3.645908144e-06
3.774956909e-06
3.645908144e-06
3.774956909e-06
3.645908144e-06
3.774956909e-06
3.645908144e-06
3.774956909e-06
3.645908144e-06
3.774956909e-06
3.645908144e-06
3.774956909e-06
3.645908144e-06
3.774956909e-06
3.645908144e-06
3.774956909e-06
3.645908144e-06
3.774956909e-06
3.645908144e-06
3.774956909e-06
3.645908144e-06
3.774956909e-06
3.645908144e-06
3.774956909e-06
3.645908144e-06
3.774956909e-06
3.645908144e-06
3.774956909e-06
3.645908144e-06
3.774956909e-06
3.645908144e-06
3.774956909e-06
3.645908144e-06
3.774956909e-06
3.645908144e-06
3.774956909e-06
3.645908144e-06
3.774956909e-06
3.645908144e-06
3.774956909e-06
3.645908144e-06
3.774956909e-06
3.645908144e-06
3.774956909e-06
3.645908144e-06
3.774956909e-06
3.645908144e-06
3.774956909e-06
3.645908144e-06
3.774956909e-06
3.645908144e-06
3.774956909e-06
3.645908144e-06
3.774956909e-06
3.645908144e-06
3.774956909e-06
3.645908144e-06
3.774956909e-06
3.645908144e-06
3.774956909e-06
3.645908144e-06
3.774956909e-06
3.645908144e-06
3.774956909e-06
3.645908144e-06
3.774956909e-06
3.645908144e-06
3.774956909e-06
3.645908144e-06
3.774956909e-06
3.645908144e-06
3.774956909e-06
3.645908144e-06
3.774956909e-06
3.645908144e-06
3.774956909e-06
3.645908144e-06
3.774956909e-06
3.645908144e-06
3.774956909e-06
3.645908144e-06
3.774956909e-06
3.645908144e-06
3.774956909e-06
3.645908144e-06
3.774956909e-06
3.645908144e-06
3.774956909e-06
3.645908144e-06
3.774956909e-06
3.645908144e-06
3.774956909e-06
3.645908144e-06
3.774956909e-06
3.645908144e-06
3.774956909e-06
3.645908144e-06
3.774956909e-06
3.645908144e-06
3.774956909e-06
3.645908144e-06
3.774956909e-06
3.645908144e-06
3.774956909e-06
3.645908144e-06
3.774956909e-06
3.645908144e-06
3.774956909e-06
3.645908144e-06
3.774956909e-06
3.645908144e-06
3.774956909e-06
3.645908144e-06
3.774956909e-06
3.645908144e-06
3.774956909e-06
3.645908144e-06
3.774956909e-06
3.645908144e-06
3.774956909e-06
3.645908144e-06
3.774956909e-06
3.645908144e-06
3.774956909e-06
3.645908144e-06
3.774956909e-06
3.645908144e-06
3.774956909e-06
3.645908144e-06
3.774956909e-06
3.645908144e-06
3.774956909e-06
3.645908144e-06
3.774956909e-06
3.645908144e-06
3.774956909e-06
3.645908144e-06
3.774956909e-06
3.645908144e-06
3.774956909e-06
3.645908144e-06
3.774956909e-06
3.645908144e-06
3.774956909e-06
3.645908144e-06
3.774956909e-06
3.645908144e-06
3.774956909e-06
3.645908144e-06
3.774956909e-06
3.645908144e-06
3.774956909e-06
3.645908144e-06
3.774956909e-06
3.645908144e-06
3.774956909e-06
3.645908144e-06
3.774956909e-06
3.645908144e-06
3.774956909e-06
3.645908144e-06
3.774956909e-06
3.645908144e-06
3.774956909e-06
3.645908144e-06
3.774956909e-06
3.645908144e-06
3.774956909e-06
3.645908144e-06
3.774956909e-06
3.645908144e-06
3.774956909e-06
3.645908144e-06
3.774956909e-06
3.645908144e-06
3.774956909e-06
3.645908144e-06
3.774956909e-06
3.645908144e-06
3.774956909e-06
3.645908144e-06
3.774956909e-06
3.645908144e-06
3.774956909e-06
3.645908144e-06
3.776079072e-06
3.647030307e-06
3.779445562e-06
3.650396797e-06
3.785056377e-06
3.656007613e-06
3.79291152e-06
3.663862755e-06
3.803010988e-06
3.673962223e-06
3.815354783e-06
3.686306018e-06
3.829942904e-06
3.70089414e-06
3.846775352e-06
3.717726587e-06
3.865852126e-06
3.736803361e-06
3.887173226e-06
3.758124461e-06
3.910738653e-06
3.781689888e-06
3.936548406e-06
3.807499641e-06
3.964602485e-06
3.83555372e-06
3.994900891e-06
3.865852126e-06
4.027443623e-06
3.898394858e-06
4.062230681e-06
3.933181916e-06
4.099262065e-06
3.970213301e-06
4.138537777e-06
4.009489012e-06
4.180057814e-06
4.051009049e-06
4.223822178e-06
4.094773413e-06
4.269830868e-06
4.140782103e-06
4.318083884e-06
4.189035119e-06
4.368581227e-06
4.239532462e-06
4.421322896e-06
4.292274131e-06
4.476308891e-06
4.347260126e-06
4.533539213e-06
4.404490448e-06
4.593013861e-06
4.463965096e-06
4.654732835e-06
4.525684071e-06
4.718696136e-06
4.589647371e-06
4.784903763e-06
4.655854999e-06
4.853355717e-06
4.724306952e-06
4.924051997e-06
4.795003232e-06
4.996992603e-06
4.867943838e-06
5.072177535e-06
4.94312877e-06
5.149606794e-06
5.020558029e-06
5.229280379e-06
5.100231614e-06
5.311198291e-06
5.182149526e-06
5.395360529e-06
5.266311764e-06
5.481767093e-06
5.352718328e-06
5.570417983e-06
5.441369219e-06
5.6613132e-06
5.532264436e-06
5.754452743e-06
5.625403979e-06
5.849836613e-06
5.720787848e-06
5.947464809e-06
5.818416044e-06
6.047337331e-06
5.918288567e-06
6.14945418e-06
6.020405415e-06
6.253815355e-06
6.12476659e-06
6.360420856e-06
6.231372091e-06
6.469270684e-06
6.340221919e-06
6.580364838e-06
6.451316073e-06
6.693703318e-06
6.564654553e-06
6.809286125e-06
6.68023736e-06
6.927113258e-06
6.798064493e-06
7.047184717e-06
6.918135952e-06
7.169500503e-06
7.040451738e-06
7.294060615e-06
7.16501185e-06
7.420865053e-06
7.291816288e-06
7.549913818e-06
7.420865053e-06
7.552158144e-06
7.420865053e-06
7.425353706e-06
7.291816288e-06
7.294060615e-06
7.16501185e-06
7.16501185e-06
7.040451738e-06
7.038207412e-06
6.918135952e-06
6.9136473e-06
6.798064493e-06
6.791331514e-06
6.68023736e-06
6.671260055e-06
6.564654553e-06
6.553432922e-06
6.451316073e-06
6.437850115e-06
6.340221919e-06
6.324511635e-06
6.231372091e-06
6.213417481e-06
6.12476659e-06
6.104567653e-06
6.020405415e-06
5.997962152e-06
5.918288567e-06
5.893600977e-06
5.818416044e-06
5.791484128e-06
5.720787848e-06
5.691611606e-06
5.625403979e-06
5.59398341e-06
5.532264436e-06
5.49859954e-06
5.441369219e-06
5.405459997e-06
5.352718328e-06
5.31456478e-06
5.266311764e-06
5.22591389e-06
5.182149526e-06
5.139507325e-06
5.100231614e-06
5.055345088e-06
5.020558029e-06
4.973427176e-06
4.94312877e-06
4.893753591e-06
4.867943838e-06
4.816324332e-06
4.795003232e-06
4.7411394e-06
4.724306952e-06
4.668198793e-06
4.655854999e-06
4.597502514e-06
4.589647371e-06
4.52905056e-06
4.525684071e-06
4.462842933e-06
4.463965096e-06
4.398879632e-06
4.404490448e-06
4.337160658e-06
4.347260126e-06
4.27768601e-06
4.292274131e-06
4.220455688e-06
4.239532462e-06
4.165469693e-06
4.189035119e-06
4.112728024e-06
4.140782103e-06
4.062230681e-06
4.094773413e-06
4.013977664e-06
4.051009049e-06
3.967968974e-06
4.009489012e-06
3.924204611e-06
3.970213301e-06
3.882684573e-06
3.933181916e-06
3.843408862e-06
3.898394858e-06
3.806377478e-06
3.865852126e-06
3.771590419e-06
3.83555372e-06
3.739047687e-06
3.807499641e-06
3.708749282e-06
3.781689888e-06
3.680695203e-06
3.758124461e-06
3.65488545e-06
3.736803361e-06
3.631320023e-06
3.717726587e-06
3.609998923e-06
3.70089414e-06
3.590922149e-06
3.686306018e-06
3.574089701e-06
3.673962223e-06
3.55950158e-06
3.663862755e-06
3.547157785e-06
3.656007613e-06
3.537058317e-06
3.650396797e-06
3.529203174e-06
3.647030307e-06
3.523592359e-06
3.645908144e-06
3.520225869e-06
3.645908144e-06
3.519103706e-06
3.645908144e-06
3.519103706e-06
3.645908144e-06
3.519103706e-06
3.645908144e-06
3.519103706e-06
3.645908144e-06
3.519103706e-06
3.645908144e-06
3.519103706e-06
3.645908144e-06
3.519103706e-06
3.645908144e-06
3.519103706e-06
3.645908144e-06
3.519103706e-06
3.645908144e-06
3.519103706e-06
3.645908144e-06
3.519103706e-06
3.645908144e-06
3.519103706e-06
3.645908144e-06
3.519103706e-06
3.645908144e-06
3.519103706e-06
3.645908144e-06
3.519103706e-06
3.645908144e-06
3.519103706e-06
3.645908144e-06
3.519103706e-06
3.645908144e-06
3.519103706e-06
3.645908144e-06
3.519103706e-06
3.645908144e-06
3.519103706e-06
3.645908144e-06
3.519103706e-06
3.645908144e-06
3.519103706e-06
3.645908144e-06
3.519103706e-06
3.645908144e-06
3.519103706e-06
3.645908144e-06
3.519103706e-06
3.645908144e-06
3.519103706e-06
3.645908144e-06
3.519103706e-06
3.645908144e-06
3.519103706e-06
3.645908144e-06
3.519103706e-06
3.645908144e-06
3.519103706e-06
3.645908144e-06
3.519103706e-06
3.645908144e-06
3.519103706e-06
3.645908144e-06
3.519103706e-06
3.645908144e-06
3.519103706e-06
3.645908144e-06
3.519103706e-06
3.645908144e-06
3.519103706e-06
3.645908144e-06
3.519103706e-06
3.645908144e-06
3.519103706e-06
3.645908144e-06
3.519103706e-06
3.645908144e-06
3.519103706e-06
3.645908144e-06
3.519103706e-06
3.645908144e-06
3.519103706e-06
3.645908144e-06
3.519103706e-06
3.645908144e-06
3.519103706e-06
3.645908144e-06
3.519103706e-06
3.645908144e-06
3.519103706e-06
3.645908144e-06
3.519103706e-06
3.645908144e-06
3.519103706e-06
3.645908144e-06
3.519103706e-06
3.645908144e-06
3.519103706e-06
3.645908144e-06
3.519103706e-06
3.645908144e-06
3.519103706e-06
3.645908144e-06
3.519103706e-06
3.645908144e-06
3.519103706e-06
3.645908144e-06
3.519103706e-06
3.645908144e-06
3.519103706e-06
3.645908144e-06
3.519103706e-06
3.645908144e-06
3.519103706e-06
3.645908144e-06
3.519103706e-06
3.645908144e-06
3.519103706e-06
3.645908144e-06
3.519103706e-06
3.645908144e-06
3.519103706e-06
3.645908144e-06
3.519103706e-06
3.645908144e-06
3.519103706e-06
3.645908144e-06
3.519103706e-06
3.645908144e-06
3.519103706e-06
3.645908144e-06
3.519103706e-06
3.645908144e-06
3.519103706e-06
3.645908144e-06
3.519103706e-06
3.645908144e-06
3.519103706e-06
3.645908144e-06
3.519103706e-06
3.645908144e-06
3.519103706e-06
3.645908144e-06
3.519103706e-06
3.645908144e-06
3.519103706e-06
3.645908144e-06
3.519103706e-06
3.645908144e-06
3.519103706e-06
3.645908144e-06
3.519103706e-06
3.645908144e-06
3.519103706e-06
3.645908144e-06
3.519103706e-06
3.645908144e-06
3.519103706e-06
3.645908144e-06
3.519103706e-06
3.645908144e-06
3.519103706e-06
3.645908144e-06
3.519103706e-06
3.645908144e-06
3.519103706e-06
3.645908144e-06
3.519103706e-06
3.645908144e-06
3.519103706e-06
3.645908144e-06
3.519103706e-06
3.645908144e-06
3.519103706e-06
3.645908144e-06
3.519103706e-06
3.645908144e-06
3.519103706e-06
3.645908144e-06
3.519103706e-06
3.645908144e-06
3.519103706e-06
3.645908144e-06
3.519103706e-06
3.645908144e-06
3.519103706e-06
3.645908144e-06
3.519103706e-06
3.645908144e-06
3.519103706e-06
3.645908144e-06
3.519103706e-06
3.645908144e-06
3.519103706e-06
3.645908144e-06
3.519103706e-06
3.645908144e-06
3.519103706e-06
3.645908144e-06
3.519103706e-06
3.645908144e-06
3.519103706e-06
3.645908144e-06
3.519103706e-06
3.645908144e-06
3.519103706e-06
3.645908144e-06
3.519103706e-06
3.645908144e-06
3.519103706e-06
3.645908144e-06
3.519103706e-06
3.645908144e-06
3.519103706e-06
3.645908144e-06
3.519103706e-06
3.645908144e-06
3.519103706e-06
3.645908144e-06
3.519103706e-06
3.645908144e-06
3.519103706e-06
3.645908144e-06
3.519103706e-06
3.645908144e-06
3.519103706e-06
3.645908144e-06
3.519103706e-06
3.645908144e-06
3.519103706e-06
3.645908144e-06
3.519103706e-06
3.645908144e-06
3.519103706e-06
3.645908144e-06
3.519103706e-06
3.645908144e-06
3.519103706e-06
3.645908144e-06
3.519103706e-06
3.645908144e-06
3.519103706e-06
3.645908144e-06
3.519103706e-06
3.645908144e-06
3.519103706e-06
3.645908144e-06
3.519103706e-06
3.645908144e-06
3.519103706e-06
3.645908144e-06
3.519103706e-06
3.645908144e-06
3.519103706e-06
3.645908144e-06
3.519103706e-06
3.645908144e-06
3.519103706e-06
3.645908144e-06
3.519103706e-06
3.645908144e-06
3.519103706e-06
3.645908144e-06
3.519103706e-06
3.645908144e-06
3.519103706e-06
3.645908144e-06
3.519103706e-06
3.645908144e-06
3.519103706e-06
3.645908144e-06
3.519103706e-06
3.645908144e-06
3.519103706e-06
3.645908144e-06
3.519103706e-06
3.645908144e-06
3.519103706e-06
3.645908144e-06
3.519103706e-06
3.645908144e-06
3.519103706e-06
3.645908144e-06
3.519103706e-06
3.645908144e-06
3.519103706e-06
3.645908144e-06
3.519103706e-06
3.645908144e-06
3.519103706e-06
3.645908144e-06
3.519103706e-06
3.645908144e-06
3.519103706e-06
3.645908144e-06
3.519103706e-06
3.645908144e-06
3.519103706e-06
3.645908144e-06
3.519103706e-06
3.645908144e-06
3.519103706e-06
3.645908144e-06
3.519103706e-06
3.645908144e-06
3.519103706e-06
3.645908144e-06
3.519103706e-06
3.645908144e-06
3.519103706e-06
3.645908144e-06
3.519103706e-06
3.645908144e-06
3.519103706e-06
3.645908144e-06
3.519103706e-06
3.645908144e-06
3.519103706e-06
3.645908144e-06
3.519103706e-06
3.645908144e-06
3.519103706e-06
3.645908144e-06
3.519103706e-06
3.645908144e-06
3.519103706e-06
3.645908144e-06
3.519103706e-06
3.645908144e-06
3.519103706e-06
3.645908144e-06
3.519103706e-06
3.645908144e-06
3.519103706e-06
3.645908144e-06
3.519103706e-06
3.645908144e-06
3.519103706e-06
3.645908144e-06
3.519103706e-06
3.645908144e-06
3.519103706e-06
3.645908144e-06
3.519103706e-06
3.645908144e-06
3.519103706e-06
3.645908144e-06
3.519103706e-06
3.645908144e-06
3.519103706e-06
3.645908144e-06
3.519103706e-06
3.645908144e-06
3.519103706e-06
3.645908144e-06
3.519103706e-06
3.645908144e-06
3.519103706e-06
3.645908144e-06
3.519103706e-06
3.645908144e-06
3.519103706e-06
3.645908144e-06
3.519103706e-06
3.645908144e-06
3.519103706e-06
3.645908144e-06
3.519103706e-06
3.645908144e-06
3.519103706e-06
3.645908144e-06
3.519103706e-06
3.645908144e-06
3.519103706e-06
3.645908144e-06
3.519103706e-06
3.645908144e-06
3.519103706e-06
3.645908144e-06
3.519103706e-06
3.645908144e-06
3.519103706e-06
3.645908144e-06
3.519103706e-06
3.645908144e-06
3.519103706e-06
3.645908144e-06
3.519103706e-06
3.645908144e-06
3.519103706e-06
3.645908144e-06
3.519103706e-06
3.645908144e-06
3.519103706e-06
3.645908144e-06
3.519103706e-06
3.645908144e-06
3.519103706e-06
3.645908144e-06
3.519103706e-06
3.645908144e-06
3.519103706e-06
3.647030307e-06
3.520225869e-06
3.650396797e-06
3.523592359e-06
3.656007613e-06
3.529203174e-06
3.663862755e-06
3.537058317e-06
3.673962223e-06
3.547157785e-06
3.686306018e-06
3.55950158e-06
3.70089414e-06
3.574089701e-06
3.717726587e-06
3.590922149e-06
3.736803361e-06
3.609998923e-06
3.758124461e-06
3.631320023e-06
3.781689888e-06
3.65488545e-06
3.807499641e-06
3.680695203e-06
3.83555372e-06
3.708749282e-06
3.865852126e-06
3.739047687e-06
3.898394858e-06
3.771590419e-06
3.933181916e-06
3.806377478e-06
3.970213301e-06
3.843408862e-06
4.009489012e-06
3.882684573e-06
4.051009049e-06
3.924204611e-06
4.094773413e-06
3.967968974e-06
4.140782103e-06
4.013977664e-06
4.189035119e-06
4.062230681e-06
4.239532462e-06
4.112728024e-06
4.292274131e-06
4.165469693e-06
4.347260126e-06
4.220455688e-06
4.404490448e-06
4.27768601e-06
4.463965096e-06
4.337160658e-06
4.525684071e-06
4.398879632e-06
4.589647371e-06
4.462842933e-06
4.655854999e-06
4.52905056e-06
4.724306952e-06
4.597502514e-06
4.795003232e-06
4.668198793e-06
4.867943838e-06
4.7411394e-06
4.94312877e-06
4.816324332e-06
5.020558029e-06
4.893753591e-06
5.100231614e-06
4.973427176e-06
5.182149526e-06