/*--------------------------------*- C++ -*----------------------------------*\
| =========                 |                                                 |
| \\      /  F ield         | OpenFOAM: The Open Source CFD Toolbox           |
|  \\    /   O peration     | Version:  v1906                                 |
|   \\  /    A nd           | Web:      www.OpenFOAM.com                      |
|    \\/     M anipulation  |                                                 |
\*---------------------------------------------------------------------------*/
FoamFile
{
    version     2.0;
    format      ascii;
    class       volScalarField;
    location    "constant/linearZone";
    object      sigma;
}
// * * * * * * * * * * * * * * * * * * * * * * * * * * * * * * * * * * * * * //

dimensions      [0 0 0 0 0 0 0];


internalField   nonuniform List<scalar> 
102400
(
0.05
0.04915972422
0.04833381212
0.04752226372
0.046725079
0.04594225797
0.04517380063
0.04441970698
0.04367997702
0.04295461074
0.04224360816
0.04154696926
0.04086469405
0.04019678253
0.0395432347
0.03890405056
0.03827923011
0.03766877334
0.03707268026
0.03649095088
0.03592358518
0.03537058317
0.03483194484
0.03430767021
0.03379775926
0.03330221201
0.03282102844
0.03235420856
0.03190175237
0.03146365987
0.03103993105
0.03063056593
0.03023556449
0.02985492675
0.02948865269
0.02913674232
0.02879919563
0.02847601264
0.02816719334
0.02787273772
0.02759264579
0.02732691755
0.027075553
0.02683855214
0.02661591497
0.02640764148
0.02621373169
0.02603418558
0.02586900316
0.02571818443
0.02558172939
0.02545963804
0.02535191037
0.02525854639
0.02517954611
0.02511490951
0.0250646366
0.02502872738
0.02500718184
0.025
0.025
0.025
0.025
0.025
0.025
0.025
0.025
0.025
0.025
0.025
0.025
0.025
0.025
0.025
0.025
0.025
0.025
0.025
0.025
0.025
0.025
0.025
0.025
0.025
0.025
0.025
0.025
0.025
0.025
0.025
0.025
0.025
0.025
0.025
0.025
0.025
0.025
0.025
0.025
0.025
0.025
0.025
0.025
0.025
0.025
0.025
0.025
0.025
0.025
0.025
0.025
0.025
0.025
0.025
0.025
0.025
0.025
0.025
0.025
0.025
0.025
0.025
0.025
0.025
0.025
0.025
0.025
0.025
0.025
0.025
0.025
0.025
0.025
0.025
0.025
0.025
0.025
0.025
0.025
0.025
0.025
0.025
0.025
0.025
0.025
0.025
0.025
0.025
0.025
0.025
0.025
0.025
0.025
0.025
0.025
0.025
0.025
0.025
0.025
0.025
0.025
0.025
0.025
0.025
0.025
0.025
0.025
0.025
0.025
0.025
0.025
0.025
0.025
0.025
0.025
0.025
0.025
0.025
0.025
0.025
0.025
0.025
0.025
0.025
0.025
0.025
0.025
0.025
0.025
0.025
0.025
0.025
0.025
0.025
0.025
0.025
0.025
0.025
0.025
0.025
0.025
0.025
0.025
0.025
0.025
0.025
0.025
0.025
0.025
0.025
0.025
0.025
0.025
0.025
0.025
0.025
0.025
0.025
0.025
0.025
0.025
0.025
0.025
0.025
0.025
0.025
0.025
0.025
0.025
0.025
0.025
0.025
0.025
0.025
0.025
0.025
0.025
0.025
0.025
0.025
0.025
0.025
0.025
0.025
0.025
0.025
0.025
0.025
0.025
0.025
0.025
0.025
0.025
0.025
0.025
0.025
0.025
0.025
0.025
0.025
0.025
0.02500718184
0.02502872738
0.0250646366
0.02511490951
0.02517954611
0.02525854639
0.02535191037
0.02545963804
0.02558172939
0.02571818443
0.02586900316
0.02603418558
0.02621373169
0.02640764148
0.02661591497
0.02683855214
0.027075553
0.02732691755
0.02759264579
0.02787273772
0.02816719334
0.02847601264
0.02879919563
0.02913674232
0.02948865269
0.02985492675
0.03023556449
0.03063056593
0.03103993105
0.03146365987
0.03190175237
0.03235420856
0.03282102844
0.03330221201
0.03379775926
0.03430767021
0.03483194484
0.03537058317
0.03592358518
0.03649095088
0.03707268026
0.03766877334
0.03827923011
0.03890405056
0.0395432347
0.04019678253
0.04086469405
0.04154696926
0.04224360816
0.04295461074
0.04367997702
0.04441970698
0.04517380063
0.04594225797
0.046725079
0.04752226372
0.04833381212
0.04915972422
0.05
0.04915972422
0.04831944843
0.04749353634
0.04668198793
0.04588480322
0.04510198219
0.04433352485
0.0435794312
0.04283970124
0.04211433496
0.04140333238
0.04070669348
0.04002441827
0.03935650675
0.03870295892
0.03806377478
0.03743895432
0.03682849756
0.03623240448
0.03565067509
0.03508330939
0.03453030738
0.03399166906
0.03346739443
0.03295748348
0.03246193623
0.03198075266
0.03151393278
0.03106147659
0.03062338409
0.03019965527
0.02979029015
0.02939528871
0.02901465096
0.0286483769
0.02829646653
0.02795891985
0.02763573686
0.02732691755
0.02703246194
0.02675237001
0.02648664177
0.02623527722
0.02599827636
0.02577563918
0.0255673657
0.0253734559
0.0251939098
0.02502872738
0.02487790865
0.02474145361
0.02461936225
0.02451163459
0.02441827061
0.02433927032
0.02427463373
0.02422436082
0.02418845159
0.02416690606
0.02415972422
0.02415972422
0.02415972422
0.02415972422
0.02415972422
0.02415972422
0.02415972422
0.02415972422
0.02415972422
0.02415972422
0.02415972422
0.02415972422
0.02415972422
0.02415972422
0.02415972422
0.02415972422
0.02415972422
0.02415972422
0.02415972422
0.02415972422
0.02415972422
0.02415972422
0.02415972422
0.02415972422
0.02415972422
0.02415972422
0.02415972422
0.02415972422
0.02415972422
0.02415972422
0.02415972422
0.02415972422
0.02415972422
0.02415972422
0.02415972422
0.02415972422
0.02415972422
0.02415972422
0.02415972422
0.02415972422
0.02415972422
0.02415972422
0.02415972422
0.02415972422
0.02415972422
0.02415972422
0.02415972422
0.02415972422
0.02415972422
0.02415972422
0.02415972422
0.02415972422
0.02415972422
0.02415972422
0.02415972422
0.02415972422
0.02415972422
0.02415972422
0.02415972422
0.02415972422
0.02415972422
0.02415972422
0.02415972422
0.02415972422
0.02415972422
0.02415972422
0.02415972422
0.02415972422
0.02415972422
0.02415972422
0.02415972422
0.02415972422
0.02415972422
0.02415972422
0.02415972422
0.02415972422
0.02415972422
0.02415972422
0.02415972422
0.02415972422
0.02415972422
0.02415972422
0.02415972422
0.02415972422
0.02415972422
0.02415972422
0.02415972422
0.02415972422
0.02415972422
0.02415972422
0.02415972422
0.02415972422
0.02415972422
0.02415972422
0.02415972422
0.02415972422
0.02415972422
0.02415972422
0.02415972422
0.02415972422
0.02415972422
0.02415972422
0.02415972422
0.02415972422
0.02415972422
0.02415972422
0.02415972422
0.02415972422
0.02415972422
0.02415972422
0.02415972422
0.02415972422
0.02415972422
0.02415972422
0.02415972422
0.02415972422
0.02415972422
0.02415972422
0.02415972422
0.02415972422
0.02415972422
0.02415972422
0.02415972422
0.02415972422
0.02415972422
0.02415972422
0.02415972422
0.02415972422
0.02415972422
0.02415972422
0.02415972422
0.02415972422
0.02415972422
0.02415972422
0.02415972422
0.02415972422
0.02415972422
0.02415972422
0.02415972422
0.02415972422
0.02415972422
0.02415972422
0.02415972422
0.02415972422
0.02415972422
0.02415972422
0.02415972422
0.02415972422
0.02415972422
0.02415972422
0.02415972422
0.02415972422
0.02415972422
0.02415972422
0.02415972422
0.02415972422
0.02415972422
0.02415972422
0.02415972422
0.02415972422
0.02415972422
0.02415972422
0.02415972422
0.02415972422
0.02415972422
0.02415972422
0.02415972422
0.02415972422
0.02415972422
0.02415972422
0.02415972422
0.02415972422
0.02415972422
0.02415972422
0.02415972422
0.02415972422
0.02415972422
0.02415972422
0.02415972422
0.02415972422
0.02415972422
0.02415972422
0.02415972422
0.02415972422
0.02415972422
0.02415972422
0.02415972422
0.02415972422
0.02415972422
0.02415972422
0.02415972422
0.02415972422
0.02415972422
0.02415972422
0.02415972422
0.02415972422
0.02415972422
0.02415972422
0.02415972422
0.02415972422
0.02415972422
0.02415972422
0.02416690606
0.02418845159
0.02422436082
0.02427463373
0.02433927032
0.02441827061
0.02451163459
0.02461936225
0.02474145361
0.02487790865
0.02502872738
0.0251939098
0.0253734559
0.0255673657
0.02577563918
0.02599827636
0.02623527722
0.02648664177
0.02675237001
0.02703246194
0.02732691755
0.02763573686
0.02795891985
0.02829646653
0.0286483769
0.02901465096
0.02939528871
0.02979029015
0.03019965527
0.03062338409
0.03106147659
0.03151393278
0.03198075266
0.03246193623
0.03295748348
0.03346739443
0.03399166906
0.03453030738
0.03508330939
0.03565067509
0.03623240448
0.03682849756
0.03743895432
0.03806377478
0.03870295892
0.03935650675
0.04002441827
0.04070669348
0.04140333238
0.04211433496
0.04283970124
0.0435794312
0.04433352485
0.04510198219
0.04588480322
0.04668198793
0.04749353634
0.04831944843
0.04915972422
0.04833381212
0.04749353634
0.04666762425
0.04585607584
0.04505889112
0.04427607009
0.04350761275
0.0427535191
0.04201378914
0.04128842287
0.04057742028
0.03988078138
0.03919850618
0.03853059466
0.03787704683
0.03723786268
0.03661304223
0.03600258546
0.03540649239
0.034824763
0.0342573973
0.03370439529
0.03316575697
0.03264148233
0.03213157139
0.03163602413
0.03115484056
0.03068802068
0.03023556449
0.02979747199
0.02937374318
0.02896437805
0.02856937662
0.02818873887
0.02782246481
0.02747055444
0.02713300776
0.02680982476
0.02650100546
0.02620654984
0.02592645791
0.02566072968
0.02540936512
0.02517236426
0.02494972709
0.02474145361
0.02454754381
0.0243679977
0.02420281528
0.02405199655
0.02391554151
0.02379345016
0.02368572249
0.02359235852
0.02351335823
0.02344872163
0.02339844872
0.0233625395
0.02334099397
0.02333381212
0.02333381212
0.02333381212
0.02333381212
0.02333381212
0.02333381212
0.02333381212
0.02333381212
0.02333381212
0.02333381212
0.02333381212
0.02333381212
0.02333381212
0.02333381212
0.02333381212
0.02333381212
0.02333381212
0.02333381212
0.02333381212
0.02333381212
0.02333381212
0.02333381212
0.02333381212
0.02333381212
0.02333381212
0.02333381212
0.02333381212
0.02333381212
0.02333381212
0.02333381212
0.02333381212
0.02333381212
0.02333381212
0.02333381212
0.02333381212
0.02333381212
0.02333381212
0.02333381212
0.02333381212
0.02333381212
0.02333381212
0.02333381212
0.02333381212
0.02333381212
0.02333381212
0.02333381212
0.02333381212
0.02333381212
0.02333381212
0.02333381212
0.02333381212
0.02333381212
0.02333381212
0.02333381212
0.02333381212
0.02333381212
0.02333381212
0.02333381212
0.02333381212
0.02333381212
0.02333381212
0.02333381212
0.02333381212
0.02333381212
0.02333381212
0.02333381212
0.02333381212
0.02333381212
0.02333381212
0.02333381212
0.02333381212
0.02333381212
0.02333381212
0.02333381212
0.02333381212
0.02333381212
0.02333381212
0.02333381212
0.02333381212
0.02333381212
0.02333381212
0.02333381212
0.02333381212
0.02333381212
0.02333381212
0.02333381212
0.02333381212
0.02333381212
0.02333381212
0.02333381212
0.02333381212
0.02333381212
0.02333381212
0.02333381212
0.02333381212
0.02333381212
0.02333381212
0.02333381212
0.02333381212
0.02333381212
0.02333381212
0.02333381212
0.02333381212
0.02333381212
0.02333381212
0.02333381212
0.02333381212
0.02333381212
0.02333381212
0.02333381212
0.02333381212
0.02333381212
0.02333381212
0.02333381212
0.02333381212
0.02333381212
0.02333381212
0.02333381212
0.02333381212
0.02333381212
0.02333381212
0.02333381212
0.02333381212
0.02333381212
0.02333381212
0.02333381212
0.02333381212
0.02333381212
0.02333381212
0.02333381212
0.02333381212
0.02333381212
0.02333381212
0.02333381212
0.02333381212
0.02333381212
0.02333381212
0.02333381212
0.02333381212
0.02333381212
0.02333381212
0.02333381212
0.02333381212
0.02333381212
0.02333381212
0.02333381212
0.02333381212
0.02333381212
0.02333381212
0.02333381212
0.02333381212
0.02333381212
0.02333381212
0.02333381212
0.02333381212
0.02333381212
0.02333381212
0.02333381212
0.02333381212
0.02333381212
0.02333381212
0.02333381212
0.02333381212
0.02333381212
0.02333381212
0.02333381212
0.02333381212
0.02333381212
0.02333381212
0.02333381212
0.02333381212
0.02333381212
0.02333381212
0.02333381212
0.02333381212
0.02333381212
0.02333381212
0.02333381212
0.02333381212
0.02333381212
0.02333381212
0.02333381212
0.02333381212
0.02333381212
0.02333381212
0.02333381212
0.02333381212
0.02333381212
0.02333381212
0.02333381212
0.02333381212
0.02333381212
0.02333381212
0.02333381212
0.02333381212
0.02333381212
0.02333381212
0.02333381212
0.02333381212
0.02333381212
0.02333381212
0.02333381212
0.02334099397
0.0233625395
0.02339844872
0.02344872163
0.02351335823
0.02359235852
0.02368572249
0.02379345016
0.02391554151
0.02405199655
0.02420281528
0.0243679977
0.02454754381
0.02474145361
0.02494972709
0.02517236426
0.02540936512
0.02566072968
0.02592645791
0.02620654984
0.02650100546
0.02680982476
0.02713300776
0.02747055444
0.02782246481
0.02818873887
0.02856937662
0.02896437805
0.02937374318
0.02979747199
0.03023556449
0.03068802068
0.03115484056
0.03163602413
0.03213157139
0.03264148233
0.03316575697
0.03370439529
0.0342573973
0.034824763
0.03540649239
0.03600258546
0.03661304223
0.03723786268
0.03787704683
0.03853059466
0.03919850618
0.03988078138
0.04057742028
0.04128842287
0.04201378914
0.0427535191
0.04350761275
0.04427607009
0.04505889112
0.04585607584
0.04666762425
0.04749353634
0.04833381212
0.04752226372
0.04668198793
0.04585607584
0.04504452743
0.04424734272
0.04346452169
0.04269606435
0.0419419707
0.04120224074
0.04047687446
0.03976587188
0.03906923298
0.03838695777
0.03771904625
0.03706549842
0.03642631428
0.03580149382
0.03519103706
0.03459494398
0.03401321459
0.03344584889
0.03289284688
0.03235420856
0.03182993393
0.03132002298
0.03082447573
0.03034329216
0.02987647228
0.02942401609
0.02898592359
0.02856219477
0.02815282965
0.02775782821
0.02737719046
0.0270109164
0.02665900603
0.02632145935
0.02599827636
0.02568945705
0.02539500144
0.02511490951
0.02484918127
0.02459781672
0.02436081586
0.02413817868
0.0239299052
0.0237359954
0.0235564493
0.02339126688
0.02324044815
0.02310399311
0.02298190175
0.02287417409
0.02278081011
0.02270180982
0.02263717323
0.02258690032
0.02255099109
0.02252944556
0.02252226372
0.02252226372
0.02252226372
0.02252226372
0.02252226372
0.02252226372
0.02252226372
0.02252226372
0.02252226372
0.02252226372
0.02252226372
0.02252226372
0.02252226372
0.02252226372
0.02252226372
0.02252226372
0.02252226372
0.02252226372
0.02252226372
0.02252226372
0.02252226372
0.02252226372
0.02252226372
0.02252226372
0.02252226372
0.02252226372
0.02252226372
0.02252226372
0.02252226372
0.02252226372
0.02252226372
0.02252226372
0.02252226372
0.02252226372
0.02252226372
0.02252226372
0.02252226372
0.02252226372
0.02252226372
0.02252226372
0.02252226372
0.02252226372
0.02252226372
0.02252226372
0.02252226372
0.02252226372
0.02252226372
0.02252226372
0.02252226372
0.02252226372
0.02252226372
0.02252226372
0.02252226372
0.02252226372
0.02252226372
0.02252226372
0.02252226372
0.02252226372
0.02252226372
0.02252226372
0.02252226372
0.02252226372
0.02252226372
0.02252226372
0.02252226372
0.02252226372
0.02252226372
0.02252226372
0.02252226372
0.02252226372
0.02252226372
0.02252226372
0.02252226372
0.02252226372
0.02252226372
0.02252226372
0.02252226372
0.02252226372
0.02252226372
0.02252226372
0.02252226372
0.02252226372
0.02252226372
0.02252226372
0.02252226372
0.02252226372
0.02252226372
0.02252226372
0.02252226372
0.02252226372
0.02252226372
0.02252226372
0.02252226372
0.02252226372
0.02252226372
0.02252226372
0.02252226372
0.02252226372
0.02252226372
0.02252226372
0.02252226372
0.02252226372
0.02252226372
0.02252226372
0.02252226372
0.02252226372
0.02252226372
0.02252226372
0.02252226372
0.02252226372
0.02252226372
0.02252226372
0.02252226372
0.02252226372
0.02252226372
0.02252226372
0.02252226372
0.02252226372
0.02252226372
0.02252226372
0.02252226372
0.02252226372
0.02252226372
0.02252226372
0.02252226372
0.02252226372
0.02252226372
0.02252226372
0.02252226372
0.02252226372
0.02252226372
0.02252226372
0.02252226372
0.02252226372
0.02252226372
0.02252226372
0.02252226372
0.02252226372
0.02252226372
0.02252226372
0.02252226372
0.02252226372
0.02252226372
0.02252226372
0.02252226372
0.02252226372
0.02252226372
0.02252226372
0.02252226372
0.02252226372
0.02252226372
0.02252226372
0.02252226372
0.02252226372
0.02252226372
0.02252226372
0.02252226372
0.02252226372
0.02252226372
0.02252226372
0.02252226372
0.02252226372
0.02252226372
0.02252226372
0.02252226372
0.02252226372
0.02252226372
0.02252226372
0.02252226372
0.02252226372
0.02252226372
0.02252226372
0.02252226372
0.02252226372
0.02252226372
0.02252226372
0.02252226372
0.02252226372
0.02252226372
0.02252226372
0.02252226372
0.02252226372
0.02252226372
0.02252226372
0.02252226372
0.02252226372
0.02252226372
0.02252226372
0.02252226372
0.02252226372
0.02252226372
0.02252226372
0.02252226372
0.02252226372
0.02252226372
0.02252226372
0.02252226372
0.02252226372
0.02252226372
0.02252226372
0.02252226372
0.02252226372
0.02252944556
0.02255099109
0.02258690032
0.02263717323
0.02270180982
0.02278081011
0.02287417409
0.02298190175
0.02310399311
0.02324044815
0.02339126688
0.0235564493
0.0237359954
0.0239299052
0.02413817868
0.02436081586
0.02459781672
0.02484918127
0.02511490951
0.02539500144
0.02568945705
0.02599827636
0.02632145935
0.02665900603
0.0270109164
0.02737719046
0.02775782821
0.02815282965
0.02856219477
0.02898592359
0.02942401609
0.02987647228
0.03034329216
0.03082447573
0.03132002298
0.03182993393
0.03235420856
0.03289284688
0.03344584889
0.03401321459
0.03459494398
0.03519103706
0.03580149382
0.03642631428
0.03706549842
0.03771904625
0.03838695777
0.03906923298
0.03976587188
0.04047687446
0.04120224074
0.0419419707
0.04269606435
0.04346452169
0.04424734272
0.04504452743
0.04585607584
0.04668198793
0.04752226372
0.046725079
0.04588480322
0.04505889112
0.04424734272
0.043450158
0.04266733697
0.04189887963
0.04114478598
0.04040505602
0.03967968974
0.03896868716
0.03827204826
0.03758977305
0.03692186153
0.0362683137
0.03562912956
0.03500430911
0.03439385234
0.03379775926
0.03321602988
0.03264866418
0.03209566217
0.03155702384
0.03103274921
0.03052283826
0.03002729101
0.02954610744
0.02907928756
0.02862683137
0.02818873887
0.02776501005
0.02735564493
0.02696064349
0.02658000575
0.02621373169
0.02586182132
0.02552427463
0.02520109164
0.02489227234
0.02459781672
0.02431772479
0.02405199655
0.023800632
0.02356363114
0.02334099397
0.02313272048
0.02293881069
0.02275926458
0.02259408216
0.02244326343
0.02230680839
0.02218471704
0.02207698937
0.0219836254
0.02190462511
0.02183998851
0.0217897156
0.02175380638
0.02173226084
0.021725079
0.021725079
0.021725079
0.021725079
0.021725079
0.021725079
0.021725079
0.021725079
0.021725079
0.021725079
0.021725079
0.021725079
0.021725079
0.021725079
0.021725079
0.021725079
0.021725079
0.021725079
0.021725079
0.021725079
0.021725079
0.021725079
0.021725079
0.021725079
0.021725079
0.021725079
0.021725079
0.021725079
0.021725079
0.021725079
0.021725079
0.021725079
0.021725079
0.021725079
0.021725079
0.021725079
0.021725079
0.021725079
0.021725079
0.021725079
0.021725079
0.021725079
0.021725079
0.021725079
0.021725079
0.021725079
0.021725079
0.021725079
0.021725079
0.021725079
0.021725079
0.021725079
0.021725079
0.021725079
0.021725079
0.021725079
0.021725079
0.021725079
0.021725079
0.021725079
0.021725079
0.021725079
0.021725079
0.021725079
0.021725079
0.021725079
0.021725079
0.021725079
0.021725079
0.021725079
0.021725079
0.021725079
0.021725079
0.021725079
0.021725079
0.021725079
0.021725079
0.021725079
0.021725079
0.021725079
0.021725079
0.021725079
0.021725079
0.021725079
0.021725079
0.021725079
0.021725079
0.021725079
0.021725079
0.021725079
0.021725079
0.021725079
0.021725079
0.021725079
0.021725079
0.021725079
0.021725079
0.021725079
0.021725079
0.021725079
0.021725079
0.021725079
0.021725079
0.021725079
0.021725079
0.021725079
0.021725079
0.021725079
0.021725079
0.021725079
0.021725079
0.021725079
0.021725079
0.021725079
0.021725079
0.021725079
0.021725079
0.021725079
0.021725079
0.021725079
0.021725079
0.021725079
0.021725079
0.021725079
0.021725079
0.021725079
0.021725079
0.021725079
0.021725079
0.021725079
0.021725079
0.021725079
0.021725079
0.021725079
0.021725079
0.021725079
0.021725079
0.021725079
0.021725079
0.021725079
0.021725079
0.021725079
0.021725079
0.021725079
0.021725079
0.021725079
0.021725079
0.021725079
0.021725079
0.021725079
0.021725079
0.021725079
0.021725079
0.021725079
0.021725079
0.021725079
0.021725079
0.021725079
0.021725079
0.021725079
0.021725079
0.021725079
0.021725079
0.021725079
0.021725079
0.021725079
0.021725079
0.021725079
0.021725079
0.021725079
0.021725079
0.021725079
0.021725079
0.021725079
0.021725079
0.021725079
0.021725079
0.021725079
0.021725079
0.021725079
0.021725079
0.021725079
0.021725079
0.021725079
0.021725079
0.021725079
0.021725079
0.021725079
0.021725079
0.021725079
0.021725079
0.021725079
0.021725079
0.021725079
0.021725079
0.021725079
0.021725079
0.021725079
0.021725079
0.021725079
0.021725079
0.021725079
0.02173226084
0.02175380638
0.0217897156
0.02183998851
0.02190462511
0.0219836254
0.02207698937
0.02218471704
0.02230680839
0.02244326343
0.02259408216
0.02275926458
0.02293881069
0.02313272048
0.02334099397
0.02356363114
0.023800632
0.02405199655
0.02431772479
0.02459781672
0.02489227234
0.02520109164
0.02552427463
0.02586182132
0.02621373169
0.02658000575
0.02696064349
0.02735564493
0.02776501005
0.02818873887
0.02862683137
0.02907928756
0.02954610744
0.03002729101
0.03052283826
0.03103274921
0.03155702384
0.03209566217
0.03264866418
0.03321602988
0.03379775926
0.03439385234
0.03500430911
0.03562912956
0.0362683137
0.03692186153
0.03758977305
0.03827204826
0.03896868716
0.03967968974
0.04040505602
0.04114478598
0.04189887963
0.04266733697
0.043450158
0.04424734272
0.04505889112
0.04588480322
0.046725079
0.04594225797
0.04510198219
0.04427607009
0.04346452169
0.04266733697
0.04188451594
0.0411160586
0.04036196495
0.03962223499
0.03889686872
0.03818586613
0.03748922723
0.03680695203
0.03613904051
0.03548549267
0.03484630853
0.03422148808
0.03361103131
0.03301493824
0.03243320885
0.03186584315
0.03131284114
0.03077420282
0.03024992818
0.02974001724
0.02924446998
0.02876328641
0.02829646653
0.02784401034
0.02740591784
0.02698218903
0.0265728239
0.02617782246
0.02579718472
0.02543091066
0.02507900029
0.02474145361
0.02441827061
0.02410945131
0.02381499569
0.02353490376
0.02326917552
0.02301781097
0.02278081011
0.02255817294
0.02234989945
0.02215598966
0.02197644355
0.02181126113
0.0216604424
0.02152398736
0.02140189601
0.02129416834
0.02120080437
0.02112180408
0.02105716748
0.02100689457
0.02097098535
0.02094943982
0.02094225797
0.02094225797
0.02094225797
0.02094225797
0.02094225797
0.02094225797
0.02094225797
0.02094225797
0.02094225797
0.02094225797
0.02094225797
0.02094225797
0.02094225797
0.02094225797
0.02094225797
0.02094225797
0.02094225797
0.02094225797
0.02094225797
0.02094225797
0.02094225797
0.02094225797
0.02094225797
0.02094225797
0.02094225797
0.02094225797
0.02094225797
0.02094225797
0.02094225797
0.02094225797
0.02094225797
0.02094225797
0.02094225797
0.02094225797
0.02094225797
0.02094225797
0.02094225797
0.02094225797
0.02094225797
0.02094225797
0.02094225797
0.02094225797
0.02094225797
0.02094225797
0.02094225797
0.02094225797
0.02094225797
0.02094225797
0.02094225797
0.02094225797
0.02094225797
0.02094225797
0.02094225797
0.02094225797
0.02094225797
0.02094225797
0.02094225797
0.02094225797
0.02094225797
0.02094225797
0.02094225797
0.02094225797
0.02094225797
0.02094225797
0.02094225797
0.02094225797
0.02094225797
0.02094225797
0.02094225797
0.02094225797
0.02094225797
0.02094225797
0.02094225797
0.02094225797
0.02094225797
0.02094225797
0.02094225797
0.02094225797
0.02094225797
0.02094225797
0.02094225797
0.02094225797
0.02094225797
0.02094225797
0.02094225797
0.02094225797
0.02094225797
0.02094225797
0.02094225797
0.02094225797
0.02094225797
0.02094225797
0.02094225797
0.02094225797
0.02094225797
0.02094225797
0.02094225797
0.02094225797
0.02094225797
0.02094225797
0.02094225797
0.02094225797
0.02094225797
0.02094225797
0.02094225797
0.02094225797
0.02094225797
0.02094225797
0.02094225797
0.02094225797
0.02094225797
0.02094225797
0.02094225797
0.02094225797
0.02094225797
0.02094225797
0.02094225797
0.02094225797
0.02094225797
0.02094225797
0.02094225797
0.02094225797
0.02094225797
0.02094225797
0.02094225797
0.02094225797
0.02094225797
0.02094225797
0.02094225797
0.02094225797
0.02094225797
0.02094225797
0.02094225797
0.02094225797
0.02094225797
0.02094225797
0.02094225797
0.02094225797
0.02094225797
0.02094225797
0.02094225797
0.02094225797
0.02094225797
0.02094225797
0.02094225797
0.02094225797
0.02094225797
0.02094225797
0.02094225797
0.02094225797
0.02094225797
0.02094225797
0.02094225797
0.02094225797
0.02094225797
0.02094225797
0.02094225797
0.02094225797
0.02094225797
0.02094225797
0.02094225797
0.02094225797
0.02094225797
0.02094225797
0.02094225797
0.02094225797
0.02094225797
0.02094225797
0.02094225797
0.02094225797
0.02094225797
0.02094225797
0.02094225797
0.02094225797
0.02094225797
0.02094225797
0.02094225797
0.02094225797
0.02094225797
0.02094225797
0.02094225797
0.02094225797
0.02094225797
0.02094225797
0.02094225797
0.02094225797
0.02094225797
0.02094225797
0.02094225797
0.02094225797
0.02094225797
0.02094225797
0.02094225797
0.02094225797
0.02094225797
0.02094225797
0.02094225797
0.02094225797
0.02094225797
0.02094225797
0.02094225797
0.02094225797
0.02094943982
0.02097098535
0.02100689457
0.02105716748
0.02112180408
0.02120080437
0.02129416834
0.02140189601
0.02152398736
0.0216604424
0.02181126113
0.02197644355
0.02215598966
0.02234989945
0.02255817294
0.02278081011
0.02301781097
0.02326917552
0.02353490376
0.02381499569
0.02410945131
0.02441827061
0.02474145361
0.02507900029
0.02543091066
0.02579718472
0.02617782246
0.0265728239
0.02698218903
0.02740591784
0.02784401034
0.02829646653
0.02876328641
0.02924446998
0.02974001724
0.03024992818
0.03077420282
0.03131284114
0.03186584315
0.03243320885
0.03301493824
0.03361103131
0.03422148808
0.03484630853
0.03548549267
0.03613904051
0.03680695203
0.03748922723
0.03818586613
0.03889686872
0.03962223499
0.04036196495
0.0411160586
0.04188451594
0.04266733697
0.04346452169
0.04427607009
0.04510198219
0.04594225797
0.04517380063
0.04433352485
0.04350761275
0.04269606435
0.04189887963
0.0411160586
0.04034760126
0.03959350761
0.03885377765
0.03812841138
0.03741740879
0.03672076989
0.03603849469
0.03537058317
0.03471703533
0.03407785119
0.03345303074
0.03284257397
0.0322464809
0.03166475151
0.03109738581
0.0305443838
0.03000574548
0.02948147084
0.0289715599
0.02847601264
0.02799482907
0.02752800919
0.027075553
0.0266374605
0.02621373169
0.02580436656
0.02540936512
0.02502872738
0.02466245332
0.02431054295
0.02397299627
0.02364981327
0.02334099397
0.02304653835
0.02276644642
0.02250071818
0.02224935363
0.02201235277
0.0217897156
0.02158144211
0.02138753232
0.02120798621
0.02104280379
0.02089198506
0.02075553002
0.02063343867
0.020525711
0.02043234703
0.02035334674
0.02028871014
0.02023843723
0.02020252801
0.02018098248
0.02017380063
0.02017380063
0.02017380063
0.02017380063
0.02017380063
0.02017380063
0.02017380063
0.02017380063
0.02017380063
0.02017380063
0.02017380063
0.02017380063
0.02017380063
0.02017380063
0.02017380063
0.02017380063
0.02017380063
0.02017380063
0.02017380063
0.02017380063
0.02017380063
0.02017380063
0.02017380063
0.02017380063
0.02017380063
0.02017380063
0.02017380063
0.02017380063
0.02017380063
0.02017380063
0.02017380063
0.02017380063
0.02017380063
0.02017380063
0.02017380063
0.02017380063
0.02017380063
0.02017380063
0.02017380063
0.02017380063
0.02017380063
0.02017380063
0.02017380063
0.02017380063
0.02017380063
0.02017380063
0.02017380063
0.02017380063
0.02017380063
0.02017380063
0.02017380063
0.02017380063
0.02017380063
0.02017380063
0.02017380063
0.02017380063
0.02017380063
0.02017380063
0.02017380063
0.02017380063
0.02017380063
0.02017380063
0.02017380063
0.02017380063
0.02017380063
0.02017380063
0.02017380063
0.02017380063
0.02017380063
0.02017380063
0.02017380063
0.02017380063
0.02017380063
0.02017380063
0.02017380063
0.02017380063
0.02017380063
0.02017380063
0.02017380063
0.02017380063
0.02017380063
0.02017380063
0.02017380063
0.02017380063
0.02017380063
0.02017380063
0.02017380063
0.02017380063
0.02017380063
0.02017380063
0.02017380063
0.02017380063
0.02017380063
0.02017380063
0.02017380063
0.02017380063
0.02017380063
0.02017380063
0.02017380063
0.02017380063
0.02017380063
0.02017380063
0.02017380063
0.02017380063
0.02017380063
0.02017380063
0.02017380063
0.02017380063
0.02017380063
0.02017380063
0.02017380063
0.02017380063
0.02017380063
0.02017380063
0.02017380063
0.02017380063
0.02017380063
0.02017380063
0.02017380063
0.02017380063
0.02017380063
0.02017380063
0.02017380063
0.02017380063
0.02017380063
0.02017380063
0.02017380063
0.02017380063
0.02017380063
0.02017380063
0.02017380063
0.02017380063
0.02017380063
0.02017380063
0.02017380063
0.02017380063
0.02017380063
0.02017380063
0.02017380063
0.02017380063
0.02017380063
0.02017380063
0.02017380063
0.02017380063
0.02017380063
0.02017380063
0.02017380063
0.02017380063
0.02017380063
0.02017380063
0.02017380063
0.02017380063
0.02017380063
0.02017380063
0.02017380063
0.02017380063
0.02017380063
0.02017380063
0.02017380063
0.02017380063
0.02017380063
0.02017380063
0.02017380063
0.02017380063
0.02017380063
0.02017380063
0.02017380063
0.02017380063
0.02017380063
0.02017380063
0.02017380063
0.02017380063
0.02017380063
0.02017380063
0.02017380063
0.02017380063
0.02017380063
0.02017380063
0.02017380063
0.02017380063
0.02017380063
0.02017380063
0.02017380063
0.02017380063
0.02017380063
0.02017380063
0.02017380063
0.02017380063
0.02017380063
0.02017380063
0.02017380063
0.02017380063
0.02017380063
0.02017380063
0.02017380063
0.02017380063
0.02017380063
0.02017380063
0.02017380063
0.02017380063
0.02017380063
0.02017380063
0.02018098248
0.02020252801
0.02023843723
0.02028871014
0.02035334674
0.02043234703
0.020525711
0.02063343867
0.02075553002
0.02089198506
0.02104280379
0.02120798621
0.02138753232
0.02158144211
0.0217897156
0.02201235277
0.02224935363
0.02250071818
0.02276644642
0.02304653835
0.02334099397
0.02364981327
0.02397299627
0.02431054295
0.02466245332
0.02502872738
0.02540936512
0.02580436656
0.02621373169
0.0266374605
0.027075553
0.02752800919
0.02799482907
0.02847601264
0.0289715599
0.02948147084
0.03000574548
0.0305443838
0.03109738581
0.03166475151
0.0322464809
0.03284257397
0.03345303074
0.03407785119
0.03471703533
0.03537058317
0.03603849469
0.03672076989
0.03741740879
0.03812841138
0.03885377765